eclipse.preferences.version=1
encoding//QSWAT3/QSWAT/DBUtils.py=utf-8
encoding//QSWAT3/QSWAT/QSWATBatch.py=utf-8
encoding//QSWAT3/QSWAT/QSWATData.py=utf-8
encoding//QSWAT3/QSWAT/QSWATTopology.py=utf-8
encoding//QSWAT3/QSWAT/QSWATUtils.py=utf-8
encoding//QSWAT3/QSWAT/TauDEMUtils.py=utf-8
encoding//QSWAT3/QSWAT/__init__.py=utf-8
encoding//QSWAT3/QSWAT/about.py=utf-8
encoding//QSWAT3/QSWAT/aboutdialog.py=utf-8
encoding//QSWAT3/QSWAT/convertdialog.py=utf-8
encoding//QSWAT3/QSWAT/delineation.py=utf-8
encoding//QSWAT3/QSWAT/delineationdialog.py=utf-8
encoding//QSWAT3/QSWAT/elevationbands.py=utf-8
encoding//QSWAT3/QSWAT/elevationbandsdialog.py=utf-8
encoding//QSWAT3/QSWAT/exempt.py=utf-8
encoding//QSWAT3/QSWAT/exemptdialog.py=utf-8
encoding//QSWAT3/QSWAT/globals.py=utf-8
encoding//QSWAT3/QSWAT/graphdialog.py=utf-8
encoding//QSWAT3/QSWAT/graphdialog1.py=utf-8
encoding//QSWAT3/QSWAT/hrus.py=utf-8
encoding//QSWAT3/QSWAT/hrusdialog.py=utf-8
encoding//QSWAT3/QSWAT/imageio/__init__.py=utf-8
encoding//QSWAT3/QSWAT/imageio/plugins/_freeimage.py=utf-8
encoding//QSWAT3/QSWAT/jenks.pyx=utf-8
encoding//QSWAT3/QSWAT/outletsdialog.py=utf-8
encoding//QSWAT3/QSWAT/parameters.py=utf-8
encoding//QSWAT3/QSWAT/parametersdialog.py=utf-8
encoding//QSWAT3/QSWAT/polygonize.py=utf-8
encoding//QSWAT3/QSWAT/polygonizeInC.pyx=utf-8
encoding//QSWAT3/QSWAT/polygonizeInC2.pyx=utf-8
encoding//QSWAT3/QSWAT/qswat.py=utf-8
encoding//QSWAT3/QSWAT/qswatdialog.py=utf-8
encoding//QSWAT3/QSWAT/qswatmainwindow.py=utf-8
encoding//QSWAT3/QSWAT/raster.py=utf-8
encoding//QSWAT3/QSWAT/resources_rc.py=utf-8
encoding//QSWAT3/QSWAT/selectlu.py=utf-8
encoding//QSWAT3/QSWAT/selectludialog.py=utf-8
encoding//QSWAT3/QSWAT/selectsubs.py=utf-8
encoding//QSWAT3/QSWAT/selectsubsdialog.py=utf-8
encoding//QSWAT3/QSWAT/split.py=utf-8
encoding//QSWAT3/QSWAT/splitdialog.py=utf-8
encoding//QSWAT3/QSWAT/ui_about.py=utf-8
encoding//QSWAT3/QSWAT/ui_arc_convert.py=utf-8
encoding//QSWAT3/QSWAT/ui_comparescenarios.py=utf-8
encoding//QSWAT3/QSWAT/ui_convert.py=utf-8
encoding//QSWAT3/QSWAT/ui_delineation.py=utf-8
encoding//QSWAT3/QSWAT/ui_elevationbands.py=utf-8
encoding//QSWAT3/QSWAT/ui_exempt.py=utf-8
encoding//QSWAT3/QSWAT/ui_graph.py=utf-8
encoding//QSWAT3/QSWAT/ui_graph1.py=utf-8
encoding//QSWAT3/QSWAT/ui_hrus.py=utf-8
encoding//QSWAT3/QSWAT/ui_mainwindow.py=utf-8
encoding//QSWAT3/QSWAT/ui_outlets.py=utf-8
encoding//QSWAT3/QSWAT/ui_parameters.py=utf-8
encoding//QSWAT3/QSWAT/ui_qswat.py=utf-8
encoding//QSWAT3/QSWAT/ui_selectlu.py=utf-8
encoding//QSWAT3/QSWAT/ui_selectsubs.py=utf-8
encoding//QSWAT3/QSWAT/ui_visualise.py=utf-8
encoding//QSWAT3/QSWAT/visualise.py=utf-8
encoding//QSWAT3/QSWAT/visualisedialog.py=utf-8
encoding//QSWAT3/__init__.py=utf-8
encoding//QSWAT3/catchments.py=utf-8
encoding//QSWAT3/runFixTNC.py=utf-8
encoding//QSWAT3/runHUC.py=utf-8
encoding//QSWAT3/runTNC.py=utf-8
encoding//QSWAT3/test_polygonize.py=utf-8
encoding//QSWAT3/test_polygonizeInC.py=utf-8
encoding//QSWAT3/test_polygonizeInC2.py=utf-8
encoding//QSWAT3/test_qswat.py=utf-8
