!coverage.py: This is a private format, don't read it directly!{"lines": {"C:\\Users\\Chirs George\\.qgis2\\python\\plugins\\QSwat\\split.py": [131, 21, 23, 24, 25, 27, 28, 29, 31, 33, 162, 35, 166, 43, 184, 65, 195, 70, 208, 82, 91, 223, 228, 235, 110, 125], "C:\\Users\\Chirs George\\.qgis2\\python\\plugins\\QSwat\\DBUtils.py": [21, 23, 24, 25, 26, 27, 28, 29, 30, 31, 32, 33, 35, 37, 39, 42, 44, 45, 47, 48, 49, 51, 52, 56, 59, 61, 63, 65, 67, 77, 82, 84, 87, 91, 93, 95, 105, 107, 109, 114, 116, 118, 120, 122, 126, 128, 129, 130, 131, 138, 142, 145, 146, 147, 148, 155, 172, 176, 177, 178, 179, 180, 184, 196, 201, 202, 203, 205, 232, 236, 237, 238, 239, 240, 241, 242, 243, 244, 245, 246, 247, 249, 250, 251, 255, 259, 268, 272, 273, 274, 275, 276, 277, 278, 279, 280, 281, 282, 283, 284, 289, 292, 293, 294, 295, 296, 297, 298, 299, 300, 301, 302, 303, 304, 306, 307, 308, 309, 310, 311, 313, 316, 323, 326, 330, 331, 333, 337, 338, 340, 342, 343, 344, 345, 346, 347, 348, 349, 352, 353, 354, 358, 362, 364, 365, 366, 367, 368, 371, 372, 376, 380, 381, 382, 383, 384, 385, 386, 387, 389, 391, 392, 393, 402, 406, 407, 410, 411, 412, 413, 414, 415, 417, 418, 420, 422, 423, 424, 425, 427, 428, 429, 430, 431, 433, 434, 435, 438, 440, 448, 458, 460, 462, 463, 464, 473, 475, 476, 477, 478, 479, 483, 486, 524, 531, 533, 534, 536, 538, 563, 568, 570, 571, 572, 573, 574, 576, 578, 579, 580, 581, 583, 604, 605, 607, 616, 617, 619, 641, 642, 644, 646, 647, 649, 651, 652, 653, 654, 658, 659, 660, 664, 665, 666, 667, 668, 669, 670, 671, 672, 676, 677, 678, 679, 681, 683, 684, 685, 686, 690, 691, 692, 696, 697, 698, 699, 700, 701, 702, 703, 704, 705, 706, 708, 713, 761, 762, 763, 765, 766, 767, 769, 770, 771, 772, 783, 784, 785, 789, 790, 791, 792, 793, 794, 796, 797, 798, 799, 800, 801, 802, 804, 805, 806, 807, 808, 810, 811, 812, 813, 815, 816, 817, 818, 822, 823, 825, 827, 830, 872, 874, 875, 876, 877, 878, 879, 880, 881, 882], "C:\\Users\\Chirs George\\workspace\\QSWAT\\polygonize.py": [665, 87, 685, 188, 686, 23, 24, 25, 26, 175, 28, 29, 688, 549, 91, 548, 262, 550, 433, 552, 553, 554, 555, 556, 557, 559, 99, 561, 50, 563, 565, 54, 55, 568, 57, 570, 59, 60, 61, 62, 63, 65, 68, 581, 70, 583, 72, 585, 586, 587, 582, 589, 78, 89, 592, 83, 86, 185, 88, 100, 90, 603, 93, 95, 96, 98, 611, 612, 613, 614, 615, 616, 617, 618, 107, 620, 621, 622, 623, 624, 625, 626, 115, 628, 117, 630, 105, 632, 121, 635, 637, 126, 639, 128, 641, 130, 643, 132, 645, 134, 648, 137, 650, 139, 652, 141, 654, 655, 659, 148, 149, 150, 151, 664, 153, 154, 156, 157, 158, 159, 160, 161, 162, 675, 165, 678, 113, 102, 103, 683, 173, 174, 541, 176, 177, 690, 179, 692, 694, 695, 184, 697, 186, 699, 700, 701, 191, 192, 193, 194, 195, 196, 197, 198, 711, 201, 120, 210, 211, 212, 213, 214, 199, 216, 219, 220, 221, 223, 123, 373, 209, 234, 235, 236, 237, 238, 125, 240, 242, 297, 673, 114, 255, 256, 257, 258, 259, 260, 261, 588, 266, 267, 268, 687, 284, 286, 571, 560, 646, 296, 112, 298, 299, 300, 301, 304, 305, 309, 310, 312, 660, 321, 322, 323, 324, 566, 326, 328, 551, 56, 338, 339, 341, 343, 345, 348, 350, 351, 352, 355, 356, 357, 359, 572, 367, 369, 370, 371, 372, 574, 374, 375, 376, 377, 677, 382, 383, 386, 388, 662, 390, 392, 395, 397, 399, 661, 401, 403, 405, 406, 407, 668, 410, 239, 412, 666, 116, 418, 419, 420, 421, 422, 423, 424, 425, 426, 428, 429, 430, 431, 584, 434, 435, 436, 670, 438, 440, 441, 443, 672, 669, 451, 452, 453, 454, 455, 456, 457, 458, 663, 461, 462, 463, 465, 163, 590, 476, 478, 101, 480, 482, 484, 486, 337, 488, 489, 490, 679, 494, 496, 680, 498, 562, 681, 504, 505, 506, 508, 509, 511], "C:\\Users\\Chirs George\\.qgis2\\python\\plugins\\QSwat\\parametersdialog.py": [21, 23, 24, 27, 28], "C:\\Users\\Chirs George\\workspace\\QSWAT\\exempt.py": [32, 33, 66, 74, 44, 83, 21, 23, 24, 25, 27, 28, 29, 31], "C:\\Users\\Chirs George\\.qgis2\\python\\plugins\\QSwat\\splitdialog.py": [21, 23, 24, 27, 28], "C:\\Users\\Chirs George\\.qgis2\\python\\plugins\\QSwat\\ui_outlets.py": [10, 12, 13, 14, 15, 17, 18, 19, 20, 21, 22, 23, 24, 25, 26, 27, 28, 29, 30, 31, 32, 33, 34, 35, 36, 37, 38, 39, 40, 41, 42, 43, 44, 45, 46, 47, 48, 49, 50, 51, 52, 53, 54, 55, 56, 57, 58, 59, 60, 62, 63, 64, 65, 67, 68, 69, 70, 71, 72, 73, 74, 76], "C:\\Users\\Chirs George\\workspace\\QSWAT\\ui_about.py": [66, 10, 12, 13, 14, 15, 17, 18, 61], "C:\\Users\\Chirs George\\.qgis2\\python\\plugins\\QSwat\\outletsdialog.py": [35, 21, 23, 24, 27, 28, 29], "C:\\Users\\Chirs George\\workspace\\QSWAT\\parameters.py": [173, 21, 23, 24, 25, 27, 28, 29, 31, 33, 36, 37, 39, 40, 41, 42, 43, 44, 45, 46, 48, 49, 50, 51, 52, 53, 54, 55, 56, 57, 58, 59, 60, 61, 62, 63, 192, 65, 66, 67, 68, 69, 70, 72, 75, 77, 93, 110, 121], "C:\\Users\\Chirs George\\.qgis2\\python\\plugins\\QSwat\\selectlu.py": [33, 42, 55, 21, 23, 24, 25, 27, 29, 31], "C:\\Users\\Chirs George\\workspace\\QSWAT\\DBUtils.py": [307, 343, 524, 658, 531, 21, 534, 23, 24, 25, 26, 27, 28, 29, 30, 31, 32, 33, 35, 37, 39, 649, 42, 44, 45, 47, 48, 49, 51, 52, 568, 692, 570, 59, 572, 61, 574, 63, 576, 65, 578, 67, 580, 581, 583, 677, 77, 696, 82, 84, 87, 771, 91, 604, 605, 607, 784, 691, 785, 616, 617, 619, 109, 114, 275, 116, 118, 105, 120, 122, 362, 126, 533, 128, 641, 642, 107, 644, 790, 646, 647, 364, 138, 651, 652, 653, 142, 365, 145, 146, 147, 148, 366, 793, 664, 665, 666, 155, 668, 538, 670, 669, 672, 368, 676, 659, 678, 93, 681, 683, 172, 685, 686, 176, 177, 178, 179, 180, 201, 184, 697, 698, 699, 700, 701, 702, 703, 704, 705, 706, 196, 801, 713, 202, 203, 205, 808, 791, 690, 823, 804, 805, 806, 367, 813, 789, 536, 232, 807, 236, 237, 238, 239, 240, 241, 242, 243, 244, 245, 246, 247, 249, 250, 251, 796, 298, 766, 255, 769, 770, 259, 772, 129, 812, 810, 268, 130, 783, 272, 273, 274, 131, 276, 277, 278, 279, 280, 281, 282, 283, 284, 797, 798, 799, 800, 289, 802, 292, 293, 294, 295, 296, 297, 95, 299, 300, 301, 302, 303, 304, 817, 306, 563, 308, 309, 310, 311, 825, 827, 316, 573, 830, 323, 792, 822, 326, 330, 331, 333, 684, 56, 338, 340, 654, 342, 313, 344, 345, 346, 347, 348, 349, 352, 353, 354, 571, 708, 358, 872, 762, 874, 875, 876, 877, 878, 879, 880, 881, 882, 371, 372, 376, 660, 380, 381, 382, 383, 384, 385, 386, 387, 389, 763, 392, 393, 402, 579, 406, 407, 410, 411, 412, 413, 414, 415, 815, 418, 667, 420, 422, 423, 424, 425, 427, 428, 429, 430, 431, 433, 434, 435, 811, 438, 440, 671, 816, 448, 417, 458, 460, 462, 463, 464, 794, 761, 473, 475, 476, 477, 478, 479, 483, 391, 486, 337, 818, 679, 765, 767], "C:\\Users\\Chirs George\\workspace\\QSWAT\\__init__.py": [24, 22], "C:\\Users\\Chirs George\\.qgis2\\python\\plugins\\QSwat\\parameters.py": [21, 23, 24, 25, 27, 28, 29, 31, 33, 36, 37, 39, 40, 41, 42, 43, 44, 45, 46, 48, 49, 50, 51, 52, 53, 54, 55, 56, 57, 58, 59, 60, 61, 62, 63, 65, 66, 67, 68, 69, 70, 72, 75, 77, 93, 110, 121, 173, 192], "C:\\Program Files (x86)\\QGIS Brighton\\apps\\qgis\\python\\qgis\\__init__.py": [18, 20, 21, 22, 24, 26, 28, 29, 30, 31, 36, 38, 43, 44, 45, 48, 51, 52, 54, 57, 58, 59, 60, 65, 66, 71, 81, 87, 88], "C:\\Users\\Chirs George\\.qgis2\\python\\plugins\\QSwat\\ui_qswat.py": [10, 12, 13, 14, 15, 17, 18, 19, 20, 21, 22, 23, 24, 25, 26, 27, 28, 29, 30, 31, 32, 33, 34, 35, 36, 37, 38, 39, 40, 41, 42, 43, 44, 45, 46, 47, 48, 49, 50, 51, 52, 53, 54, 55, 56, 57, 58, 59, 60, 61, 62, 63, 64, 65, 66, 67, 68, 69, 70, 71, 72, 73, 74, 75, 76, 77, 78, 79, 80, 81, 82, 83, 84, 85, 86, 87, 88, 89, 90, 91, 92, 93, 94, 95, 96, 97, 98, 99, 100, 101, 102, 103, 104, 105, 106, 107, 108, 109, 110, 111, 112, 113, 114, 115, 116, 117, 118, 119, 120, 121, 122, 123, 124, 125, 126, 127, 128, 129, 130, 131, 132, 133, 134, 135, 136, 137, 138, 139, 140, 141, 142, 143, 144, 145, 146, 147, 149, 150, 151, 152, 154, 155, 156, 157, 158, 159, 160, 161, 162, 163, 164, 165, 166, 167, 168, 169, 170, 171, 172, 173, 174, 175, 176, 178], "C:\\Users\\Chirs George\\workspace\\QSWAT\\selectsubs.py": [21, 23, 24, 25, 27, 28, 29, 31, 33, 35, 37, 38, 39, 40, 42, 44, 46, 48, 50, 51, 52, 53, 54, 55, 56, 57, 58, 59, 61, 68, 70, 72, 74, 75, 78, 79, 83, 86, 87, 88, 89, 90, 91, 92, 93, 94, 95, 97, 99, 101, 103, 104, 105, 106, 108, 110, 112, 116], "C:\\Users\\Chirs George\\.qgis2\\python\\plugins\\QSwat\\exempt.py": [66, 74, 83, 21, 23, 24, 25, 27, 28, 29, 31, 32, 33, 44], "C:\\Users\\Chirs George\\.qgis2\\python\\plugins\\QSwat\\selectsubsdialog.py": [35, 21, 23, 24, 27, 28, 29], "C:\\Users\\Chirs George\\.qgis2\\python\\plugins\\QSwat\\ui_delineation.py": [10, 12, 13, 14, 15, 17, 18, 19, 20, 21, 22, 23, 24, 25, 26, 27, 28, 29, 30, 31, 32, 33, 34, 35, 36, 37, 38, 39, 40, 41, 42, 43, 44, 45, 46, 47, 48, 49, 50, 51, 52, 53, 54, 55, 56, 57, 58, 59, 60, 61, 62, 63, 64, 65, 66, 67, 68, 69, 70, 71, 72, 73, 74, 75, 76, 77, 78, 79, 80, 81, 82, 83, 84, 85, 86, 87, 88, 89, 90, 91, 92, 93, 94, 95, 96, 97, 98, 99, 100, 101, 102, 103, 104, 105, 106, 107, 108, 109, 110, 111, 112, 113, 114, 115, 116, 117, 118, 119, 120, 121, 122, 123, 124, 125, 126, 127, 128, 129, 130, 131, 132, 133, 134, 135, 136, 137, 138, 139, 140, 141, 142, 143, 144, 145, 146, 147, 148, 149, 150, 151, 152, 153, 154, 155, 156, 157, 158, 159, 160, 161, 162, 163, 164, 165, 166, 167, 168, 169, 170, 171, 172, 173, 174, 175, 176, 177, 178, 179, 180, 181, 182, 183, 184, 185, 186, 187, 188, 189, 190, 191, 192, 193, 194, 195, 196, 197, 198, 199, 200, 201, 202, 203, 204, 205, 206, 207, 208, 209, 210, 211, 212, 213, 214, 215, 216, 217, 218, 219, 220, 221, 222, 223, 224, 225, 226, 227, 228, 229, 230, 231, 232, 233, 234, 235, 236, 237, 238, 239, 240, 241, 242, 243, 244, 245, 246, 247, 248, 249, 250, 251, 252, 253, 254, 255, 256, 257, 258, 259, 260, 261, 262, 263, 264, 265, 266, 267, 268, 269, 270, 271, 272, 273, 274, 275, 276, 277, 278, 279, 280, 281, 282, 283, 284, 285, 286, 287, 288, 289, 290, 291, 292, 293, 294, 295, 296, 297, 298, 299, 300, 301, 302, 303, 304, 305, 306, 307, 308, 309, 310, 311, 312, 313, 314, 315, 316, 317, 318, 319, 320, 321, 322, 323, 324, 325, 326, 327, 328, 329, 330, 331, 332, 333, 334, 335, 336, 337, 338, 339, 340, 341, 342, 343, 344, 345, 346, 347, 348, 349, 350, 351, 352, 353, 354, 355, 356, 357, 358, 359, 360, 361, 362, 363, 364, 365, 366, 367, 368, 369, 370, 371, 372, 373, 374, 375, 376, 377, 378, 379, 380, 381, 383, 384, 385, 387, 388, 389, 390, 391, 392, 393, 394, 395, 396, 397, 398, 399, 400, 401, 402, 403, 404, 405, 406, 407, 408, 409, 410, 411, 412, 413, 414, 415, 416, 417, 418, 419, 420, 421, 422, 423, 424, 425, 426, 427, 428, 429, 430, 431, 432, 433, 434, 435, 436, 437, 438, 439, 440, 441, 442, 443, 444, 445, 446, 447, 448, 449, 450, 451, 452, 453, 454, 455, 456, 457, 458, 459, 460, 461, 462, 463, 464, 465, 466, 467, 468, 469, 470, 471, 472, 474], "C:\\Users\\Chirs George\\.qgis2\\python\\plugins\\QSwat\\TauDEMUtils.py": [21, 23, 24, 25, 26, 27, 28, 29, 31, 33, 35, 38, 40, 43, 45, 48, 50, 53, 54, 55, 56, 58, 61, 62, 64, 66, 69, 70, 71, 72, 74, 77, 79, 82, 83, 84, 85, 86, 87, 88, 94, 97, 98, 100, 133, 134, 135, 136, 137, 138, 139, 140, 141, 144, 145, 146, 147, 148, 149, 150, 151, 152, 153, 154, 155, 156, 160, 161, 162, 165, 166, 167, 168, 170, 171, 172, 173, 174, 175, 176, 177, 178, 179, 180, 183, 184, 191, 192, 193, 194, 195, 196, 197, 200, 201, 210, 212, 219, 226, 228, 229, 233], "C:\\Users\\Chirs George\\.qgis2\\python\\plugins\\QSwat\\elevationbandsdialog.py": [21, 23, 24, 27, 28], "C:\\Users\\Chirs George\\.qgis2\\python\\plugins\\QSwat\\ui_hrus.py": [10, 12, 13, 14, 15, 17, 18, 19, 20, 21, 22, 23, 24, 25, 26, 27, 28, 29, 30, 31, 32, 33, 34, 35, 36, 37, 38, 39, 40, 41, 42, 43, 44, 45, 46, 47, 48, 49, 50, 51, 52, 53, 54, 55, 56, 57, 58, 59, 60, 61, 62, 63, 64, 65, 66, 67, 68, 69, 70, 71, 72, 73, 74, 75, 76, 77, 78, 79, 80, 81, 82, 83, 84, 85, 86, 87, 88, 89, 90, 91, 92, 93, 94, 95, 96, 97, 98, 99, 100, 101, 102, 103, 104, 105, 106, 107, 108, 109, 110, 111, 112, 113, 114, 115, 116, 117, 118, 119, 120, 121, 122, 123, 124, 125, 126, 127, 128, 129, 130, 131, 132, 133, 134, 135, 136, 137, 138, 139, 140, 141, 142, 143, 144, 145, 146, 147, 148, 149, 150, 151, 152, 153, 154, 155, 156, 157, 158, 159, 160, 161, 162, 163, 164, 165, 166, 167, 168, 169, 170, 171, 172, 173, 174, 175, 176, 177, 178, 179, 180, 181, 182, 183, 184, 185, 186, 187, 188, 189, 190, 191, 192, 193, 194, 195, 196, 197, 198, 199, 200, 201, 202, 203, 204, 205, 206, 207, 208, 209, 210, 211, 212, 213, 214, 215, 216, 217, 218, 219, 220, 221, 222, 223, 224, 225, 226, 227, 228, 229, 230, 231, 232, 233, 234, 235, 236, 237, 238, 239, 240, 241, 242, 243, 244, 245, 246, 247, 248, 249, 250, 251, 252, 253, 254, 255, 256, 257, 258, 259, 260, 261, 262, 263, 264, 265, 266, 267, 268, 269, 270, 271, 272, 273, 274, 275, 276, 277, 278, 279, 280, 281, 282, 283, 284, 285, 286, 287, 288, 289, 290, 291, 292, 293, 294, 295, 296, 297, 298, 299, 300, 301, 302, 303, 304, 305, 306, 307, 308, 309, 310, 311, 312, 313, 314, 315, 316, 317, 318, 319, 320, 321, 322, 323, 324, 325, 326, 327, 328, 329, 330, 331, 332, 333, 334, 335, 336, 337, 338, 339, 340, 341, 342, 343, 344, 345, 346, 347, 348, 349, 350, 351, 352, 353, 354, 355, 356, 357, 358, 359, 360, 361, 362, 363, 364, 365, 366, 367, 368, 369, 370, 371, 372, 373, 374, 375, 376, 377, 378, 379, 380, 381, 382, 383, 384, 385, 386, 387, 388, 389, 390, 391, 392, 393, 394, 395, 396, 397, 398, 399, 400, 401, 402, 403, 404, 405, 406, 407, 408, 409, 410, 411, 412, 413, 414, 416, 417, 418, 420, 421, 422, 423, 424, 425, 426, 427, 428, 429, 430, 431, 432, 433, 434, 435, 436, 437, 438, 439, 440, 441, 442, 443, 444, 445, 446, 447, 448, 449, 450, 451, 452, 453, 454, 455, 456, 457, 458, 459, 460, 461, 464, 465, 466, 467, 468, 469, 470, 471, 472, 473, 474, 475, 476, 477, 478, 479, 480, 481, 482, 483, 484, 485, 486, 487, 488, 489, 490, 491, 492, 493, 494, 495, 496, 497, 498, 499, 500, 501, 502, 503, 504, 505, 506, 507, 508, 509, 510, 511], "C:\\Users\\Chirs George\\.qgis2\\python\\plugins\\QSwat\\qswatdialog.py": [35, 21, 23, 24, 27, 28, 29], "C:\\Users\\Chirs George\\workspace\\QSWAT\\elevationbandsdialog.py": [21, 23, 24, 27, 28, 29], "C:\\Users\\Chirs George\\.qgis2\\python\\plugins\\QSwat\\ui_split.py": [103, 76, 10, 12, 13, 14, 15, 17, 18], "C:\\Users\\Chirs George\\workspace\\QSWAT\\ui_graph.py": [101, 10, 12, 13, 14, 15, 17, 18, 94], "C:\\Users\\Chirs George\\workspace\\QSWAT\\qswat.py": [21, 23, 24, 25, 26, 27, 28, 30, 31, 32, 33, 34, 35, 36, 37, 38, 41, 42, 43, 44, 45, 46, 47, 48, 49, 51, 53, 57, 60, 62, 63, 65, 67, 74, 77, 78, 79, 88, 90, 93, 95, 108, 113, 150, 161, 166, 182, 194, 196, 197, 198, 199, 200, 203, 204, 205, 206, 207, 216, 219, 220, 221, 223, 228, 248, 266, 277, 291, 292, 295, 296, 297, 298, 299, 423, 432, 436, 437, 438, 439, 442, 443, 446, 447, 450, 451, 454, 455, 459, 467], "C:\\Users\\Chirs George\\.qgis2\\python\\plugins\\QSwat\\delineationdialog.py": [35, 21, 23, 24, 27, 28, 29], "C:\\Users\\Chirs George\\workspace\\QSWAT\\ui_selectlu.py": [40, 10, 43, 12, 13, 14, 15, 17, 18], "C:\\Users\\Chirs George\\workspace\\QSWAT\\about.py": [32, 34, 42, 62, 21, 23, 24, 25, 27, 28, 30], "C:\\Users\\Chirs George\\.qgis2\\python\\plugins\\QSwat\\waterbaseicon.py": [10, 12, 13, 14, 15, 17, 19, 21], "C:\\Users\\Chirs George\\.qgis2\\python\\plugins\\QSwat\\polygonize.py": [21, 23, 24, 25, 26, 28, 29, 50, 54, 55, 56, 57, 59, 60, 61, 62, 63, 65, 68, 70, 72, 78, 83, 95, 107, 112, 113, 114, 115, 116, 117, 120, 125, 126, 128, 130, 132, 134, 137, 139, 141, 144, 145, 146, 147, 149, 150, 152, 153, 154, 155, 156, 157, 158, 159, 161, 169, 170, 171, 172, 173, 175, 180, 181, 182, 184, 187, 188, 189, 190, 191, 192, 193, 194, 195, 197, 205, 206, 207, 208, 209, 210, 212, 215, 216, 217, 219, 230, 231, 232, 233, 234, 235, 236, 238, 251, 252, 253, 262, 263, 280, 282, 292, 293, 294, 295, 296, 297, 299, 300, 301, 303, 304, 305, 306, 309, 311, 328, 342, 371, 373, 375, 377, 379, 381, 383, 385, 387, 388, 389, 392, 394, 400, 401, 402, 403, 404, 405, 406, 407, 408, 410, 411, 412, 413, 415, 416, 417, 418, 420, 422, 423, 425, 433, 434, 435, 436, 437, 438, 439, 440, 443, 444, 445, 447, 458, 460, 462, 464, 466, 468, 470, 471, 472, 476, 478, 480, 486, 487, 488, 490, 491, 493, 523, 527, 529, 530, 531, 532, 533, 534, 535, 536, 538, 539, 540, 541, 542, 544, 546, 547, 548, 550, 568, 579, 587, 588, 589, 590, 591, 592, 593, 594, 596, 597, 598, 599, 600, 601, 602, 604, 606, 608, 611, 613, 615, 617, 619, 621, 622, 624, 626, 628, 630, 631, 635, 636, 637, 638, 639, 640, 641, 642, 644, 645, 646, 648, 649, 651, 653, 654, 655, 656, 657, 659, 661, 662, 663, 664, 666, 668, 670, 671, 673, 675, 676, 677, 687], "C:\\Users\\Chirs George\\.qgis2\\python\\plugins\\QSwat\\resources_rc.py": [19298, 10, 19159, 19290, 19292, 19293, 19262, 19295], "C:\\Users\\Chirs George\\.qgis2\\python\\plugins\\QSwat\\aboutdialog.py": [21, 23, 24, 27, 28], "C:\\Users\\Chirs George\\workspace\\QSWAT\\ui_qswat.py": [10, 12, 13, 14, 15, 17, 18, 19, 20, 21, 22, 23, 24, 25, 26, 27, 28, 29, 30, 31, 32, 33, 34, 35, 36, 37, 38, 39, 40, 41, 42, 43, 44, 45, 46, 47, 48, 49, 50, 51, 52, 53, 54, 55, 56, 57, 58, 59, 60, 61, 62, 63, 64, 65, 66, 67, 68, 69, 70, 71, 72, 73, 74, 75, 76, 77, 78, 79, 80, 81, 82, 83, 84, 85, 86, 87, 88, 89, 90, 91, 92, 93, 94, 95, 96, 97, 98, 99, 100, 101, 102, 103, 104, 105, 106, 107, 108, 109, 110, 111, 112, 113, 114, 115, 116, 117, 118, 119, 120, 121, 122, 123, 124, 125, 126, 127, 128, 129, 130, 131, 132, 133, 134, 135, 136, 137, 138, 139, 140, 141, 142, 143, 144, 145, 146, 147, 149, 150, 151, 152, 154, 155, 156, 157, 158, 159, 160, 161, 162, 163, 164, 165, 166, 167, 168, 169, 170, 171, 172, 173, 174, 175, 176, 178], "C:\\Users\\Chirs George\\.qgis2\\python\\plugins\\QSwat\\qswat.py": [21, 23, 24, 25, 26, 27, 28, 30, 31, 32, 33, 34, 35, 36, 37, 38, 41, 42, 43, 44, 45, 46, 47, 48, 49, 51, 53, 57, 60, 62, 63, 65, 67, 74, 77, 78, 79, 88, 90, 93, 95, 108, 113, 150, 161, 166, 182, 194, 196, 197, 198, 199, 200, 203, 204, 205, 206, 207, 216, 219, 220, 221, 223, 228, 248, 266, 277, 291, 292, 295, 296, 297, 298, 299, 423, 432, 436, 437, 438, 439, 442, 443, 446, 447, 450, 451, 454, 455, 459, 467], "C:\\Users\\Chirs George\\workspace\\QSWAT\\ui_outlets.py": [10, 12, 13, 14, 15, 17, 18, 19, 20, 21, 22, 23, 24, 25, 26, 27, 28, 29, 30, 31, 32, 33, 34, 35, 36, 37, 38, 39, 40, 41, 42, 43, 44, 45, 46, 47, 48, 49, 50, 51, 52, 53, 54, 55, 56, 57, 58, 59, 60, 62, 63, 64, 65, 67, 68, 69, 70, 71, 72, 73, 74, 76], "C:\\Users\\Chirs George\\.qgis2\\python\\plugins\\QSwat\\hrusdialog.py": [35, 21, 23, 24, 27, 28, 29], "C:\\Users\\Chirs George\\workspace\\QSWAT\\ui_selectsubs.py": [10, 12, 13, 14, 15, 17, 18, 19, 20, 21, 22, 23, 24, 25, 26, 27, 28, 29, 30, 31, 32, 33, 34, 35, 36, 37, 38, 39, 40, 41, 42, 43, 44, 45, 46, 47, 48, 49, 50, 51, 52, 53, 54, 55, 56, 57, 58, 59, 60, 61, 62, 63, 65, 66, 68, 69, 70, 82, 83, 84, 85, 87, 88, 89, 90, 91, 92, 93, 94], "C:\\Users\\Chirs George\\workspace\\QSWAT\\graphdialog.py": [21, 23, 24, 27, 28, 29], "C:\\Users\\Chirs George\\workspace\\QSWAT\\swatgraph.py": [13, 14, 15, 17, 18, 19, 20, 21, 23, 24, 27, 28, 31, 32, 34, 165, 296, 173, 48, 178, 184, 60, 318, 71, 331, 206, 84, 89, 349, 101, 273, 115, 375, 277], "C:\\Program Files (x86)\\QGIS Brighton\\apps\\qgis\\python\\qgis\\gui\\__init__.py": [1], "C:\\Users\\Chirs George\\workspace\\QSWAT\\selectsubsdialog.py": [37, 21, 23, 24, 27, 28, 29, 31], "C:\\Users\\Chirs George\\.qgis2\\python\\plugins\\QSwat\\ui_exempt.py": [68, 10, 12, 13, 14, 15, 17, 18, 57], "C:\\Users\\Chirs George\\workspace\\QSWAT\\TauDEMUtils.py": [21, 23, 24, 25, 26, 27, 28, 29, 31, 33, 35, 38, 40, 43, 45, 48, 50, 53, 54, 55, 56, 58, 61, 62, 64, 66, 69, 70, 71, 72, 74, 77, 79, 82, 83, 84, 85, 86, 87, 88, 94, 97, 98, 100, 133, 134, 135, 136, 137, 138, 139, 140, 141, 144, 145, 146, 147, 148, 149, 150, 151, 152, 153, 154, 155, 156, 160, 161, 162, 165, 166, 167, 168, 170, 171, 172, 173, 174, 175, 176, 177, 178, 179, 180, 183, 184, 191, 192, 193, 194, 195, 196, 197, 200, 201, 210, 212, 219, 227, 230, 231, 235], "C:\\Users\\Chirs George\\workspace\\QSWAT\\hrus.py": [21, 23, 24, 25, 26, 28, 29, 30, 31, 32, 33, 34, 35, 36, 37, 38, 39, 41, 43, 45, 47, 48, 49, 50, 51, 52, 53, 54, 56, 58, 60, 62, 64, 66, 68, 70, 72, 74, 75, 76, 77, 78, 79, 80, 81, 82, 83, 84, 85, 86, 87, 88, 89, 90, 91, 92, 93, 94, 95, 96, 97, 98, 99, 100, 101, 102, 103, 104, 105, 106, 107, 108, 112, 113, 114, 115, 116, 117, 118, 119, 120, 121, 122, 123, 124, 125, 126, 127, 128, 129, 130, 131, 132, 134, 147, 198, 202, 204, 205, 206, 207, 208, 209, 212, 215, 216, 217, 218, 219, 220, 222, 223, 224, 225, 229, 230, 231, 236, 237, 242, 259, 260, 261, 262, 263, 264, 265, 266, 269, 270, 271, 278, 279, 281, 282, 283, 284, 285, 286, 287, 288, 289, 290, 291, 292, 293, 294, 295, 296, 297, 298, 299, 300, 301, 302, 303, 304, 305, 307, 309, 310, 311, 312, 317, 322, 324, 328, 332, 348, 360, 362, 363, 365, 366, 367, 372, 377, 379, 381, 382, 383, 384, 385, 386, 387, 388, 389, 391, 392, 393, 395, 396, 397, 398, 399, 401, 406, 409, 410, 412, 413, 414, 415, 416, 417, 418, 419, 420, 421, 422, 423, 424, 425, 429, 430, 431, 433, 435, 436, 437, 438, 439, 451, 453, 457, 458, 459, 461, 463, 464, 465, 466, 471, 472, 473, 474, 475, 476, 477, 478, 479, 481, 483, 484, 485, 486, 487, 488, 489, 490, 491, 493, 494, 495, 496, 497, 498, 499, 500, 501, 502, 503, 504, 505, 506, 507, 508, 509, 510, 511, 512, 513, 514, 515, 516, 517, 518, 520, 521, 522, 523, 524, 525, 526, 527, 529, 531, 533, 534, 535, 536, 537, 538, 540, 541, 542, 543, 544, 545, 546, 547, 548, 550, 554, 555, 556, 557, 558, 559, 560, 562, 563, 566, 567, 568, 569, 570, 572, 584, 596, 603, 610, 612, 613, 615, 616, 618, 619, 620, 621, 622, 623, 626, 628, 629, 630, 631, 633, 635, 636, 638, 639, 641, 642, 643, 644, 645, 646, 648, 650, 651, 652, 654, 656, 657, 659, 660, 662, 663, 664, 665, 666, 667, 669, 671, 672, 673, 675, 677, 678, 680, 681, 683, 684, 685, 686, 687, 688, 690, 692, 693, 694, 696, 698, 699, 701, 702, 703, 704, 705, 706, 707, 709, 711, 712, 713, 715, 717, 720, 721, 722, 723, 724, 725, 726, 727, 728, 729, 730, 732, 734, 735, 736, 737, 738, 741, 742, 743, 744, 745, 746, 747, 748, 750, 752, 753, 755, 756, 760, 761, 762, 765, 771, 776, 781, 786, 788, 789, 790, 793, 795, 797, 798, 799, 800, 801, 802, 810, 811, 816, 820, 821, 822, 829, 830, 835, 839, 840, 842, 843, 845, 846, 861, 862, 877, 878, 880, 881, 883, 884, 886, 887, 888, 896, 897, 902, 905, 906, 907, 908, 909, 910, 911, 918, 919, 922, 925, 926, 927, 929, 930, 932, 933, 935, 936, 938, 939, 942, 944, 945, 946, 947, 948, 949, 950, 951, 952, 953, 954, 955, 956, 957, 958, 959, 960, 961, 962, 963, 964, 965, 967, 968, 969, 972, 974, 976, 978, 980, 982, 983, 984, 986, 988, 989, 990, 992, 993, 994, 997, 999, 1001, 1003, 1005, 1007, 1009, 1011, 1013, 1015, 1017, 1019, 1021, 1023, 1025, 1027, 1029, 1033, 1035, 1037, 1040, 1042, 1048, 1050, 1052, 1054, 1056, 1058, 1060, 1062, 1064, 1065, 1066, 1068, 1069, 1070, 1071, 1072, 1074, 1075, 1076, 1077, 1078, 1079, 1080, 1081, 1082, 1083, 1084, 1087, 1088, 1089, 1091, 1096, 1097, 1098, 1099, 1100, 1101, 1102, 1105, 1106, 1109, 1110, 1111, 1112, 1113, 1116, 1117, 1118, 1119, 1120, 1121, 1122, 1124, 1126, 1127, 1128, 1130, 1132, 1133, 1134, 1135, 1136, 1137, 1138, 1139, 1143, 1144, 1146, 1148, 1149, 1150, 1151, 1152, 1153, 1154, 1158, 1159, 1160, 1162, 1164, 1166, 1167, 1168, 1169, 1170, 1171, 1172, 1176, 1177, 1178, 1180, 1182, 1184, 1185, 1186, 1187, 1188, 1190, 1192, 1193, 1194, 1195, 1196, 1197, 1198, 1200, 1202, 1203, 1204, 1205, 1206, 1208, 1213, 1214, 1215, 1216, 1217, 1218, 1219, 1221, 1241, 1244, 1245, 1246, 1248, 1250, 1251, 1252, 1253, 1254, 1255, 1256, 1257, 1258, 1259, 1261, 1262, 1263, 1266, 1268, 1270, 1272, 1274, 1276, 1278, 1282, 1284, 1286, 1288, 1338, 1340, 1342, 1344, 1345, 1346, 1347, 1349, 1353, 1357, 1360, 1363, 1365, 1367, 1369, 1371, 1373, 1375, 1377, 1379, 1381, 1383, 1386, 1388, 1391, 1392, 1393, 1396, 1397, 1400, 1401, 1402, 1405, 1406, 1409, 1410, 1413, 1414, 1418, 1419, 1420, 1421, 1422, 1423, 1424, 1425, 1426, 1427, 1428, 1429, 1430, 1431, 1433, 1434, 1435, 1436, 1437, 1438, 1439, 1442, 1443, 1444, 1445, 1446, 1447, 1449, 1450, 1451, 1452, 1453, 1454, 1455, 1457, 1458, 1459, 1461, 1462, 1463, 1464, 1465, 1466, 1467, 1468, 1469, 1470, 1471, 1474, 1475, 1476, 1477, 1480, 1481, 1482, 1483, 1484, 1485, 1486, 1487, 1488, 1489, 1490, 1492, 1493, 1494, 1495, 1497, 1498, 1501, 1502, 1503, 1507, 1508, 1511, 1512, 1513, 1516, 1518, 1519, 1520, 1522, 1523, 1524, 1525, 1530, 1531, 1532, 1533, 1534, 1535, 1536, 1537, 1538, 1539, 1540, 1541, 1542, 1543, 1544, 1545, 1546, 1548, 1550, 1551, 1552, 1553, 1554, 1555, 1556, 1557, 1558, 1559, 1560, 1561, 1562, 1563, 1564, 1565, 1566, 1567, 1568, 1570, 1571, 1572, 1573, 1574, 1575, 1576, 1577, 1578, 1579, 1581, 1582, 1583, 1584, 1585, 1586, 1588, 1589, 1590, 1591, 1592, 1593, 1595, 1599, 1600, 1601, 1602, 1605, 1608, 1610, 1611, 1612, 1613, 1616, 1619, 1621, 1622, 1623, 1624, 1627, 1628, 1631, 1632, 1633, 1636, 1637, 1638, 1639, 1642, 1643, 1644, 1645, 1646, 1648, 1650, 1651, 1652, 1653, 1654, 1655, 1656, 1657, 1659, 1660, 1661, 1662, 1663, 1664, 1665, 1666, 1670, 1672, 1673, 1674, 1675, 1676, 1677, 1678, 1680, 1681, 1684, 1685, 1686, 1687, 1688, 1690, 1691, 1692, 1693, 1694, 1696, 1697, 1698, 1699, 1700, 1701, 1703, 1704, 1705, 1707, 1708, 1709, 1711, 1717, 1718, 1719, 1721, 1722, 1723, 1727, 1728, 1730, 1732, 1733, 1751, 1752, 1753, 1754, 1755, 1756, 1757, 1758, 1759, 1761, 1763, 1764, 1765, 1766, 1767, 1768, 1769, 1770, 1771, 1772, 1773, 1774, 1775, 1776, 1777, 1778, 1781, 1782, 1783, 1784, 1785, 1786, 1787, 1788, 1789, 1790, 1791, 1792, 1793, 1794, 1803, 1804, 1805, 1806, 1807, 1808, 1809, 1810, 1811, 1812, 1813, 1814, 1815, 1816, 1820, 1821, 1822, 1824, 1825, 1826, 1827, 1830, 1832, 1834, 1835, 1836, 1837, 1838, 1839, 1840, 1841, 1842, 1843, 1847, 1848, 1849, 1850, 1851, 1852, 1854, 1855, 1856, 1857, 1858, 1860, 1861, 1862, 1863, 1864, 1866, 1867, 1871, 1873, 1874, 1875, 1876, 1878, 1880, 1881, 1883, 1886, 1888, 1890, 1892, 1893, 1894, 1916, 1917, 1918, 1919, 1920, 1921, 1922, 1923, 1924, 1925, 1926, 1927, 1928, 1930, 1932, 1933, 1934, 1935, 1936, 1938, 1950, 1951, 1952, 1953, 1954, 1956, 1958, 1959, 1961, 1984, 2007, 2020, 2021, 2022, 2023, 2024, 2025, 2027, 2028, 2029, 2030, 2031, 2032, 2033, 2034, 2035, 2036, 2037, 2039, 2054, 2055, 2056, 2057, 2058, 2059, 2061, 2062, 2064, 2065, 2066, 2067, 2068, 2069, 2072, 2073, 2074, 2075, 2076, 2077, 2078, 2129, 2151, 2152, 2155, 2157, 2158, 2159, 2161, 2162, 2163, 2164, 2165, 2166, 2167, 2168, 2169, 2170, 2171, 2172, 2173, 2174, 2175, 2176, 2177, 2178, 2181, 2182, 2183, 2184, 2186, 2187, 2189, 2191, 2192, 2193, 2195, 2197, 2210, 2211, 2212, 2214, 2215, 2217, 2218, 2220, 2221, 2222, 2223, 2224, 2225, 2228, 2229, 2230, 2231, 2232, 2234, 2236, 2237, 2241, 2242, 2243, 2244, 2245, 2246, 2248, 2249, 2251, 2253, 2254, 2256, 2258, 2259, 2260, 2263, 2265, 2266, 2267, 2268, 2269, 2270, 2273, 2274, 2276, 2277, 2278, 2279, 2280, 2281, 2283, 2284, 2286, 2288, 2289, 2291, 2293, 2294, 2297, 2299, 2300, 2301, 2302, 2303, 2305, 2391, 2393, 2394, 2396, 2398, 2401, 2402, 2403, 2404, 2406, 2419, 2420, 2421, 2422, 2423, 2424, 2425, 2426, 2427, 2428, 2430, 2431, 2434, 2435, 2436, 2437, 2439, 2441, 2442, 2444, 2445, 2446, 2447, 2449, 2451, 2452, 2454, 2456, 2457, 2458, 2460, 2461, 2462, 2464, 2466, 2467, 2468, 2469, 2470, 2472, 2473, 2475, 2476, 2477, 2478, 2479, 2481, 2483, 2484, 2485, 2487, 2488, 2489, 2490, 2491, 2493, 2494, 2496, 2497, 2499, 2500, 2501, 2503, 2505, 2506, 2507, 2509, 2511, 2512, 2513, 2514, 2515, 2516, 2517, 2518, 2519, 2520, 2521, 2522, 2524, 2525, 2526, 2527, 2528, 2532, 2533, 2534, 2535, 2536, 2537, 2539, 2541, 2542, 2543, 2544, 2545, 2546, 2547, 2548, 2549, 2550, 2551, 2552, 2553, 2554, 2555, 2556, 2557, 2558, 2559, 2560, 2562, 2563, 2564, 2565, 2566, 2567, 2568, 2569, 2570, 2571, 2572, 2574, 2575, 2576, 2577, 2578, 2579, 2580, 2582, 2585, 2586, 2587, 2589, 2590, 2591, 2593, 2594, 2595, 2596, 2597, 2598, 2600, 2602, 2603, 2604, 2605, 2606, 2607, 2608, 2609, 2613, 2619, 2620, 2622, 2623, 2624, 2626, 2627, 2628, 2629, 2630, 2631, 2636, 2642, 2643, 2644, 2646, 2647, 2648, 2649, 2650, 2651, 2652, 2653, 2654, 2655, 2657, 2658, 2659, 2660, 2661, 2662, 2663, 2664, 2665, 2666, 2667, 2668, 2669, 2670, 2671, 2672, 2673, 2674, 2675, 2676, 2677, 2678, 2679, 2680, 2681, 2682, 2683, 2684, 2685, 2686, 2687, 2688, 2689, 2690, 2691, 2692, 2693, 2694, 2695, 2696, 2697, 2698, 2699, 2700, 2701, 2702, 2703, 2704, 2705, 2706, 2707, 2708, 2710, 2711, 2712, 2714, 2715, 2716, 2717, 2718, 2719, 2720, 2721, 2722, 2723, 2724, 2726, 2727, 2728, 2729, 2730, 2732, 2733, 2735, 2737, 2738, 2739, 2740, 2741, 2742, 2743, 2744, 2745, 2746, 2747, 2748, 2749, 2750, 2751, 2756, 2757, 2759, 2760, 2762, 2763, 2764, 2765, 2766, 2767, 2768, 2769, 2770, 2771, 2772, 2773, 2774, 2775, 2776, 2777, 2778, 2779, 2780, 2781, 2782, 2783, 2784, 2785, 2786, 2787, 2788, 2789, 2790, 2793, 2794, 2795, 2796, 2797, 2798, 2799, 2801, 2803, 2805, 2806, 2808, 2809, 2810, 2811, 2812, 2813, 2814, 2815, 2816, 2817, 2818, 2819, 2820, 2821, 2822, 2823, 2824, 2825, 2826, 2827, 2828, 2829, 2830, 2831, 2832, 2833, 2834, 2835, 2836, 2837, 2838, 2839, 2841, 2843, 2844, 2845, 2846, 2849, 2850, 2854, 2857, 2858, 2859, 2860, 2861, 2862, 2863, 2864, 2865, 2866, 2867, 2868, 2869, 2870, 2871, 2872, 2873, 2876, 2877, 2880, 2881, 2885, 2887, 2888, 2889, 2890, 2891, 2892, 2893, 2895, 2896, 2897, 2899, 2900, 2901, 2902, 2903, 2905, 2906, 2908, 2910, 2912, 2913, 2914, 2915, 2916, 2917, 2918, 2921, 2923, 2925, 2926, 2927, 2928, 2930, 2931, 2932, 2933, 2934, 2935, 2936, 2937, 2938, 2939, 2943, 2944, 2945, 2946, 2947, 2948, 2949, 2950, 2951, 2954, 2955, 2959, 2967, 2968, 2971, 2972, 2973, 2978, 2980, 2981, 2982, 2983, 2984, 2985, 2986, 2987, 2988, 2989, 2990, 2991, 2992, 2993, 2994, 2995, 2996, 2997, 2998, 2999, 3000, 3001, 3002, 3003, 3004, 3005, 3006, 3007, 3008, 3009, 3010, 3011, 3012, 3013, 3014, 3015, 3016, 3017, 3018, 3019, 3020, 3021, 3022, 3024, 3025, 3026, 3027, 3028, 3029, 3030, 3031, 3032, 3033, 3034, 3035, 3036, 3037, 3038, 3039, 3041, 3042, 3043, 3044, 3045, 3046, 3047, 3048, 3049, 3050, 3051, 3052, 3053, 3054, 3055, 3058