<?xml version="1.0" encoding="UTF-8"?>
<ui version="4.0">
 <class>DelineationDialog</class>
 <widget class="QDialog" name="DelineationDialog">
  <property name="geometry">
   <rect>
    <x>0</x>
    <y>0</y>
    <width>580</width>
    <height>655</height>
   </rect>
  </property>
  <property name="sizePolicy">
   <sizepolicy hsizetype="Preferred" vsizetype="Preferred">
    <horstretch>0</horstretch>
    <verstretch>0</verstretch>
   </sizepolicy>
  </property>
  <property name="windowTitle">
   <string>Delineate Watershed</string>
  </property>
  <property name="windowIcon">
   <iconset>
    <normaloff>:/plugins/qswat/QSWAT-Icon/QSWAT-Icon-SWAT-16.ico</normaloff>:/plugins/qswat/QSWAT-Icon/QSWAT-Icon-SWAT-16.ico</iconset>
  </property>
  <property name="sizeGripEnabled">
   <bool>false</bool>
  </property>
  <layout class="QGridLayout" name="gridLayout_9">
   <item row="0" column="0">
    <widget class="QGroupBox" name="demGroup">
     <property name="title">
      <string>Select DEM</string>
     </property>
     <layout class="QGridLayout" name="gridLayout_14">
      <item row="0" column="1">
       <widget class="QPushButton" name="selectDemButton">
        <property name="toolTip">
         <string>The digital elevation map, or DEM, is the basis for watershed delineation.  Click this button to select a DEM file.</string>
        </property>
        <property name="text">
         <string>. . .</string>
        </property>
       </widget>
      </item>
      <item row="0" column="0">
       <widget class="QLineEdit" name="selectDem"/>
      </item>
     </layout>
    </widget>
   </item>
   <item row="1" column="0">
    <widget class="QTabWidget" name="tabWidget">
     <property name="sizePolicy">
      <sizepolicy hsizetype="Preferred" vsizetype="Preferred">
       <horstretch>0</horstretch>
       <verstretch>0</verstretch>
      </sizepolicy>
     </property>
     <property name="toolTip">
      <string notr="true"/>
     </property>
     <property name="currentIndex">
      <number>0</number>
     </property>
     <widget class="QWidget" name="delinTab">
      <attribute name="title">
       <string>Delineate watershed</string>
      </attribute>
      <layout class="QGridLayout" name="gridLayout">
       <item row="2" column="0" colspan="3">
        <widget class="QWidget" name="thresholdWidget" native="true">
         <layout class="QGridLayout" name="gridLayout_10">
          <item row="1" column="0">
           <widget class="QLineEdit" name="numCells">
            <property name="sizePolicy">
             <sizepolicy hsizetype="Expanding" vsizetype="Fixed">
              <horstretch>0</horstretch>
              <verstretch>0</verstretch>
             </sizepolicy>
            </property>
            <property name="minimumSize">
             <size>
              <width>50</width>
              <height>20</height>
             </size>
            </property>
            <property name="toolTip">
             <string>The minimum number of cells required to create a stream as a leaf of the stream network</string>
            </property>
           </widget>
          </item>
          <item row="1" column="1">
           <widget class="QLabel" name="noCellsLabel">
            <property name="toolTip">
             <string>The threshold number of cells is the minimum number required to form a stream at a leaf of the stream network.</string>
            </property>
            <property name="text">
             <string>Number of cells</string>
            </property>
           </widget>
          </item>
          <item row="1" column="2">
           <widget class="QLineEdit" name="area">
            <property name="minimumSize">
             <size>
              <width>50</width>
              <height>20</height>
             </size>
            </property>
            <property name="toolTip">
             <string>The minimum area required to create a stream as a leaf of the stream network</string>
            </property>
           </widget>
          </item>
          <item row="1" column="4">
           <widget class="QComboBox" name="areaUnitsBox"/>
          </item>
          <item row="1" column="5">
           <spacer name="horizontalSpacer_6">
            <property name="orientation">
             <enum>Qt::Horizontal</enum>
            </property>
            <property name="sizeHint" stdset="0">
             <size>
              <width>62</width>
              <height>20</height>
             </size>
            </property>
           </spacer>
          </item>
          <item row="1" column="3">
           <widget class="QLabel" name="label_2">
            <property name="text">
             <string>Area</string>
            </property>
           </widget>
          </item>
          <item row="0" column="2">
           <widget class="QLabel" name="thresholdLabel">
            <property name="toolTip">
             <string>The threshold number of cells is the minimum number required to form a stream at a leaf of the stream network.</string>
            </property>
            <property name="text">
             <string>Define threshold</string>
            </property>
           </widget>
          </item>
         </layout>
        </widget>
       </item>
       <item row="0" column="0">
        <widget class="QCheckBox" name="checkBurn">
         <property name="toolTip">
          <string>An existing stream network may be burnt in to make delineation more accurate, particularly in flat areas</string>
         </property>
         <property name="text">
          <string>Burn in existing stream network</string>
         </property>
        </widget>
       </item>
       <item row="3" column="2">
        <widget class="QPushButton" name="delinRunButton1">
         <property name="sizePolicy">
          <sizepolicy hsizetype="Preferred" vsizetype="Fixed">
           <horstretch>0</horstretch>
           <verstretch>0</verstretch>
          </sizepolicy>
         </property>
         <property name="toolTip">
          <string>Create streams first if you want to place inlets/outlets interactively.</string>
         </property>
         <property name="text">
          <string>Create streams</string>
         </property>
        </widget>
       </item>
       <item row="4" column="0">
        <widget class="QCheckBox" name="useOutlets">
         <property name="toolTip">
          <string>The inlets outlets file defines inlets, outlets, reservoirs and point sources.  It must contain at least one outlet.</string>
         </property>
         <property name="text">
          <string>Use an inlets/outlets shapefile</string>
         </property>
         <property name="checked">
          <bool>true</bool>
         </property>
        </widget>
       </item>
       <item row="5" column="2">
        <widget class="QPushButton" name="selectOutletsButton">
         <property name="toolTip">
          <string>The inlets outlets file defines inlets, outlets, reservoirs and point sources.  It must contain at least one outlet.  Click this button to select an inlets/outlets shapefile.</string>
         </property>
         <property name="text">
          <string>. . .</string>
         </property>
        </widget>
       </item>
       <item row="7" column="1" colspan="2">
        <widget class="QPushButton" name="delinRunButton2">
         <property name="sizePolicy">
          <sizepolicy hsizetype="Preferred" vsizetype="Fixed">
           <horstretch>0</horstretch>
           <verstretch>0</verstretch>
          </sizepolicy>
         </property>
         <property name="toolTip">
          <string>Create the streams and the watershed and subbasin boundaries.</string>
         </property>
         <property name="text">
          <string>Create watershed</string>
         </property>
        </widget>
       </item>
       <item row="5" column="0" colspan="2">
        <widget class="QLineEdit" name="selectOutlets"/>
       </item>
       <item row="6" column="0" colspan="2">
        <widget class="QWidget" name="outletsWidget" native="true">
         <property name="enabled">
          <bool>true</bool>
         </property>
         <layout class="QGridLayout" name="gridLayout_3">
          <item row="0" column="1">
           <widget class="QPushButton" name="selectOutletsInteractiveButton">
            <property name="minimumSize">
             <size>
              <width>150</width>
              <height>25</height>
             </size>
            </property>
            <property name="toolTip">
             <string>&lt;!DOCTYPE HTML PUBLIC &quot;-//W3C//DTD HTML 4.0//EN&quot; &quot;http://www.w3.org/TR/REC-html40/strict.dtd&quot;&gt;
&lt;html&gt;&lt;head&gt;&lt;meta name=&quot;qrichtext&quot; content=&quot;1&quot; /&gt;&lt;style type=&quot;text/css&quot;&gt;
p, li { white-space: pre-wrap; }
&lt;/style&gt;&lt;/head&gt;&lt;body style=&quot; font-family:'MS Shell Dlg 2'; font-size:8.25pt; font-weight:400; font-style:normal;&quot;&gt;
&lt;p style=&quot; margin-top:0px; margin-bottom:0px; margin-left:0px; margin-right:0px; -qt-block-indent:0; text-indent:0px;&quot;&gt;&lt;span style=&quot; font-size:8pt;&quot;&gt;Interactively select which inlets, outlets, reservoirs and point sources to use.  You only need to do this if you want to use only a subset of what is in the shapefile.  The default is to use all the points in the shapefile.&lt;/span&gt;&lt;/p&gt;&lt;/body&gt;&lt;/html&gt;</string>
            </property>
            <property name="text">
             <string>Select inlets/outlets</string>
            </property>
           </widget>
          </item>
          <item row="1" column="0">
           <widget class="QLabel" name="snapThresholdLabel">
            <property name="text">
             <string>Snap threshold (metres)</string>
            </property>
           </widget>
          </item>
          <item row="2" column="0">
           <widget class="QLineEdit" name="snapThreshold">
            <property name="sizePolicy">
             <sizepolicy hsizetype="Minimum" vsizetype="Fixed">
              <horstretch>0</horstretch>
              <verstretch>0</verstretch>
             </sizepolicy>
            </property>
            <property name="minimumSize">
             <size>
              <width>50</width>
              <height>20</height>
             </size>
            </property>
            <property name="toolTip">
             <string>The maximum distance a point may be moved to place it on the stream network (snapped).  Points which would require more than this distance will not be used.</string>
            </property>
           </widget>
          </item>
          <item row="2" column="2">
           <widget class="QLabel" name="snappedLabel">
            <property name="minimumSize">
             <size>
              <width>111</width>
              <height>0</height>
             </size>
            </property>
            <property name="toolTip">
             <string>The number of points successfully snapped to the stream network.</string>
            </property>
            <property name="text">
             <string/>
            </property>
           </widget>
          </item>
          <item row="2" column="1">
           <widget class="QPushButton" name="snapReviewButton">
            <property name="minimumSize">
             <size>
              <width>150</width>
              <height>25</height>
             </size>
            </property>
            <property name="toolTip">
             <string>&lt;!DOCTYPE HTML PUBLIC &quot;-//W3C//DTD HTML 4.0//EN&quot; &quot;http://www.w3.org/TR/REC-html40/strict.dtd&quot;&gt;
&lt;html&gt;&lt;head&gt;&lt;meta name=&quot;qrichtext&quot; content=&quot;1&quot; /&gt;&lt;style type=&quot;text/css&quot;&gt;
p, li { white-space: pre-wrap; }
&lt;/style&gt;&lt;/head&gt;&lt;body style=&quot; font-family:'MS Shell Dlg 2'; font-size:8.25pt; font-weight:400; font-style:normal;&quot;&gt;
&lt;p style=&quot; margin-top:0px; margin-bottom:0px; margin-left:0px; margin-right:0px; -qt-block-indent:0; text-indent:0px;&quot;&gt;&lt;span style=&quot; font-size:8pt;&quot;&gt;Optionally, click to load and view the snapped inlets/outlets layer.  The snapped points will be used whether you load them or not.&lt;/span&gt;&lt;/p&gt;&lt;/body&gt;&lt;/html&gt;</string>
            </property>
            <property name="text">
             <string>Review snapped</string>
            </property>
           </widget>
          </item>
          <item row="0" column="0">
           <widget class="QPushButton" name="drawOutletsButton">
            <property name="minimumSize">
             <size>
              <width>150</width>
              <height>25</height>
             </size>
            </property>
            <property name="toolTip">
             <string>Place inlets, outlets, reservoirs, and point sources by clicking on the stream network.</string>
            </property>
            <property name="text">
             <string>Draw inlets/outlets</string>
            </property>
           </widget>
          </item>
          <item row="0" column="2">
           <widget class="QLabel" name="selectOutletsInteractiveLabel">
            <property name="minimumSize">
             <size>
              <width>111</width>
              <height>0</height>
             </size>
            </property>
            <property name="toolTip">
             <string>The number of points in the inlets/outlets shapefile that will be used.</string>
            </property>
            <property name="text">
             <string/>
            </property>
           </widget>
          </item>
         </layout>
        </widget>
       </item>
       <item row="1" column="0" colspan="2">
        <widget class="QLineEdit" name="selectBurn">
         <property name="enabled">
          <bool>false</bool>
         </property>
        </widget>
       </item>
       <item row="1" column="2">
        <widget class="QPushButton" name="burnButton">
         <property name="enabled">
          <bool>false</bool>
         </property>
         <property name="toolTip">
          <string>An existing stream network may be burnt in to make delineation more accurate, particularly in flat areas.  Click this button to select a streams file for burning in.</string>
         </property>
         <property name="text">
          <string>. . .</string>
         </property>
        </widget>
       </item>
       <item row="7" column="0">
        <spacer name="horizontalSpacer_4">
         <property name="orientation">
          <enum>Qt::Horizontal</enum>
         </property>
         <property name="sizeHint" stdset="0">
          <size>
           <width>425</width>
           <height>20</height>
          </size>
         </property>
        </spacer>
       </item>
       <item row="3" column="0">
        <spacer name="horizontalSpacer_5">
         <property name="orientation">
          <enum>Qt::Horizontal</enum>
         </property>
         <property name="sizeHint" stdset="0">
          <size>
           <width>425</width>
           <height>20</height>
          </size>
         </property>
        </spacer>
       </item>
      </layout>
      <zorder>thresholdWidget</zorder>
      <zorder>checkBurn</zorder>
      <zorder>delinRunButton1</zorder>
      <zorder>useOutlets</zorder>
      <zorder>selectOutletsButton</zorder>
      <zorder>delinRunButton2</zorder>
      <zorder>selectOutlets</zorder>
      <zorder>outletsWidget</zorder>
      <zorder>selectBurn</zorder>
      <zorder>burnButton</zorder>
      <zorder>horizontalSpacer_4</zorder>
      <zorder>horizontalSpacer_5</zorder>
     </widget>
     <widget class="QWidget" name="existTab">
      <attribute name="title">
       <string>Use existing watershed</string>
      </attribute>
      <layout class="QGridLayout" name="gridLayout_8">
       <item row="0" column="0">
        <widget class="QCheckBox" name="useGrid">
         <property name="enabled">
          <bool>true</bool>
         </property>
         <property name="text">
          <string>Use grid model</string>
         </property>
        </widget>
       </item>
       <item row="1" column="0">
        <widget class="QLabel" name="selectWshedLabel">
         <property name="text">
          <string>Watershed shapefile</string>
         </property>
        </widget>
       </item>
       <item row="2" column="0">
        <widget class="QLineEdit" name="selectWshed"/>
       </item>
       <item row="2" column="1">
        <widget class="QPushButton" name="selectWshedButton">
         <property name="toolTip">
          <string>Select a polygon shapefile showing the subbasins and watershed boundary</string>
         </property>
         <property name="text">
          <string>. . .</string>
         </property>
        </widget>
       </item>
       <item row="3" column="0">
        <widget class="QLabel" name="selectNetLabel">
         <property name="text">
          <string>Streams shapefile</string>
         </property>
        </widget>
       </item>
       <item row="4" column="0">
        <widget class="QLineEdit" name="selectNet"/>
       </item>
       <item row="4" column="1">
        <widget class="QPushButton" name="selectNetButton">
         <property name="toolTip">
          <string>Select a line shapefile showing the stream network</string>
         </property>
         <property name="text">
          <string>. . .</string>
         </property>
        </widget>
       </item>
       <item row="5" column="0">
        <widget class="QLabel" name="selectExistOutletsLabel">
         <property name="text">
          <string>Inlets/outlets shapefile (optional)</string>
         </property>
        </widget>
       </item>
       <item row="6" column="0">
        <widget class="QLineEdit" name="selectExistOutlets"/>
       </item>
       <item row="6" column="1">
        <widget class="QPushButton" name="selectExistOutletsButton">
         <property name="toolTip">
          <string>Select a point shapefile showing inlets, outlets, reservoirs and point sources.  If you do not use this option your watershed will have only outlets where the stream network exits from the watershed boundary.</string>
         </property>
         <property name="text">
          <string>. . .</string>
         </property>
        </widget>
       </item>
       <item row="7" column="0">
        <widget class="QLabel" name="existFieldsLabel">
         <property name="toolTip">
          <string>Policy for calculating values like subbasin area and stream length for placing in database.  Fields in shapefiles are not actually changed by either policy.</string>
         </property>
         <property name="text">
          <string>Existing calculated fields policy</string>
         </property>
        </widget>
       </item>
       <item row="8" column="0">
        <widget class="QRadioButton" name="reuseButton">
         <property name="toolTip">
          <string>Reuse existing fields like area and length from shapefiles</string>
         </property>
         <property name="text">
          <string>Reuse</string>
         </property>
         <property name="checked">
          <bool>true</bool>
         </property>
        </widget>
       </item>
       <item row="9" column="0">
        <widget class="QRadioButton" name="recalcButton">
         <property name="toolTip">
          <string>Recalculate existing fields like area and length even if found in shapefiles</string>
         </property>
         <property name="text">
          <string>Recalculate and overwrite existing</string>
         </property>
        </widget>
       </item>
       <item row="9" column="1">
        <widget class="QPushButton" name="existRunButton">
         <property name="sizePolicy">
          <sizepolicy hsizetype="Preferred" vsizetype="Fixed">
           <horstretch>0</horstretch>
           <verstretch>0</verstretch>
          </sizepolicy>
         </property>
         <property name="toolTip">
          <string>Delineate the watershed</string>
         </property>
         <property name="text">
          <string>Run</string>
         </property>
        </widget>
       </item>
      </layout>
     </widget>
     <widget class="QWidget" name="DEMTab">
      <attribute name="title">
       <string>DEM properties</string>
      </attribute>
      <layout class="QGridLayout" name="gridLayout_6">
       <item row="0" column="0">
        <widget class="QWidget" name="gridWidget" native="true">
         <widget class="QLineEdit" name="sizeEdit">
          <property name="geometry">
           <rect>
            <x>5</x>
            <y>80</y>
            <width>81</width>
            <height>20</height>
           </rect>
          </property>
          <property name="sizePolicy">
           <sizepolicy hsizetype="Preferred" vsizetype="Fixed">
            <horstretch>0</horstretch>
            <verstretch>0</verstretch>
           </sizepolicy>
          </property>
          <property name="inputMethodHints">
           <set>Qt::ImhNone</set>
          </property>
         </widget>
         <widget class="QLabel" name="cellSize">
          <property name="geometry">
           <rect>
            <x>5</x>
            <y>60</y>
            <width>91</width>
            <height>16</height>
           </rect>
          </property>
          <property name="text">
           <string>Cell size (m)</string>
          </property>
         </widget>
         <widget class="QLabel" name="label_3">
          <property name="geometry">
           <rect>
            <x>5</x>
            <y>120</y>
            <width>131</width>
            <height>16</height>
           </rect>
          </property>
          <property name="text">
           <string>Extent in degrees</string>
          </property>
         </widget>
         <widget class="QLineEdit" name="areaEdit">
          <property name="geometry">
           <rect>
            <x>135</x>
            <y>80</y>
            <width>81</width>
            <height>20</height>
           </rect>
          </property>
          <property name="sizePolicy">
           <sizepolicy hsizetype="Preferred" vsizetype="Fixed">
            <horstretch>0</horstretch>
            <verstretch>0</verstretch>
           </sizepolicy>
          </property>
          <property name="inputMethodHints">
           <set>Qt::ImhDigitsOnly</set>
          </property>
         </widget>
         <widget class="QComboBox" name="verticalCombo">
          <property name="geometry">
           <rect>
            <x>135</x>
            <y>20</y>
            <width>69</width>
            <height>22</height>
           </rect>
          </property>
         </widget>
         <widget class="QLabel" name="vertiicalUnits">
          <property name="geometry">
           <rect>
            <x>135</x>
            <y>0</y>
            <width>91</width>
            <height>16</height>
           </rect>
          </property>
          <property name="text">
           <string>Vertical units</string>
          </property>
         </widget>
         <widget class="QLabel" name="horizontalUnits">
          <property name="geometry">
           <rect>
            <x>5</x>
            <y>0</y>
            <width>131</width>
            <height>16</height>
           </rect>
          </property>
          <property name="text">
           <string>Horizontal units</string>
          </property>
         </widget>
         <widget class="QComboBox" name="horizontalCombo">
          <property name="geometry">
           <rect>
            <x>5</x>
            <y>20</y>
            <width>69</width>
            <height>22</height>
           </rect>
          </property>
         </widget>
         <widget class="QLabel" name="cellArea">
          <property name="geometry">
           <rect>
            <x>135</x>
            <y>60</y>
            <width>101</width>
            <height>16</height>
           </rect>
          </property>
          <property name="text">
           <string>Cell area (ha)</string>
          </property>
         </widget>
         <widget class="QWidget" name="widget" native="true">
          <property name="geometry">
           <rect>
            <x>0</x>
            <y>140</y>
            <width>236</width>
            <height>146</height>
           </rect>
          </property>
          <widget class="QLabel" name="label_4">
           <property name="geometry">
            <rect>
             <x>150</x>
             <y>0</y>
             <width>46</width>
             <height>13</height>
            </rect>
           </property>
           <property name="text">
            <string>North</string>
           </property>
          </widget>
          <widget class="QLabel" name="label_5">
           <property name="geometry">
            <rect>
             <x>50</x>
             <y>20</y>
             <width>41</width>
             <height>20</height>
            </rect>
           </property>
           <property name="text">
            <string>West</string>
           </property>
          </widget>
          <widget class="QLineEdit" name="northEdit">
           <property name="geometry">
            <rect>
             <x>100</x>
             <y>20</y>
             <width>130</width>
             <height>20</height>
            </rect>
           </property>
           <property name="sizePolicy">
            <sizepolicy hsizetype="Preferred" vsizetype="Fixed">
             <horstretch>0</horstretch>
             <verstretch>0</verstretch>
            </sizepolicy>
           </property>
          </widget>
          <widget class="QLineEdit" name="southEdit">
           <property name="geometry">
            <rect>
             <x>0</x>
             <y>110</y>
             <width>130</width>
             <height>20</height>
            </rect>
           </property>
           <property name="sizePolicy">
            <sizepolicy hsizetype="Preferred" vsizetype="Fixed">
             <horstretch>0</horstretch>
             <verstretch>0</verstretch>
            </sizepolicy>
           </property>
          </widget>
          <widget class="QLabel" name="label_6">
           <property name="geometry">
            <rect>
             <x>150</x>
             <y>60</y>
             <width>46</width>
             <height>13</height>
            </rect>
           </property>
           <property name="text">
            <string>East</string>
           </property>
          </widget>
          <widget class="QLineEdit" name="westEdit">
           <property name="geometry">
            <rect>
             <x>0</x>
             <y>50</y>
             <width>130</width>
             <height>20</height>
            </rect>
           </property>
           <property name="sizePolicy">
            <sizepolicy hsizetype="Preferred" vsizetype="Fixed">
             <horstretch>0</horstretch>
             <verstretch>0</verstretch>
            </sizepolicy>
           </property>
          </widget>
          <widget class="QLabel" name="label_7">
           <property name="geometry">
            <rect>
             <x>50</x>
             <y>90</y>
             <width>46</width>
             <height>13</height>
            </rect>
           </property>
           <property name="text">
            <string>South</string>
           </property>
          </widget>
          <widget class="QLineEdit" name="eastEdit">
           <property name="geometry">
            <rect>
             <x>100</x>
             <y>80</y>
             <width>130</width>
             <height>20</height>
            </rect>
           </property>
           <property name="sizePolicy">
            <sizepolicy hsizetype="Preferred" vsizetype="Fixed">
             <horstretch>0</horstretch>
             <verstretch>0</verstretch>
            </sizepolicy>
           </property>
          </widget>
         </widget>
        </widget>
       </item>
       <item row="0" column="1">
        <widget class="QWidget" name="verticalWidget" native="true">
         <widget class="QLabel" name="label">
          <property name="geometry">
           <rect>
            <x>10</x>
            <y>0</y>
            <width>151</width>
            <height>16</height>
           </rect>
          </property>
          <property name="text">
           <string>Spatial reference</string>
          </property>
         </widget>
         <widget class="QTextBrowser" name="textBrowser">
          <property name="geometry">
           <rect>
            <x>10</x>
            <y>25</y>
            <width>251</width>
            <height>281</height>
           </rect>
          </property>
          <property name="sizePolicy">
           <sizepolicy hsizetype="Preferred" vsizetype="Preferred">
            <horstretch>0</horstretch>
            <verstretch>0</verstretch>
           </sizepolicy>
          </property>
         </widget>
        </widget>
       </item>
      </layout>
     </widget>
     <widget class="QWidget" name="outputTab">
      <attribute name="title">
       <string>TauDEM output</string>
      </attribute>
      <layout class="QGridLayout" name="gridLayout_7">
       <item row="0" column="0" colspan="2">
        <widget class="QTextEdit" name="taudemOutput">
         <property name="sizePolicy">
          <sizepolicy hsizetype="Preferred" vsizetype="Preferred">
           <horstretch>0</horstretch>
           <verstretch>0</verstretch>
          </sizepolicy>
         </property>
        </widget>
       </item>
       <item row="1" column="0">
        <spacer name="horizontalSpacer_2">
         <property name="orientation">
          <enum>Qt::Horizontal</enum>
         </property>
         <property name="sizeHint" stdset="0">
          <size>