<?xml version="1.0" encoding="UTF-8"?>
<ui version="4.0">
 <class>OutletsDialog</class>
 <widget class="QDialog" name="OutletsDialog">
  <property name="geometry">
   <rect>
    <x>0</x>
    <y>0</y>
    <width>238</width>
    <height>279</height>
   </rect>
  </property>
  <property name="windowTitle">
   <string>Inlets/outlets</string>
  </property>
  <property name="windowIcon">
   <iconset resource="resources.qrc">
    <normaloff>:/plugins/qswat/QSWAT-Icon/QSWAT-Icon-SWAT-16.ico</normaloff>:/plugins/qswat/QSWAT-Icon/QSWAT-Icon-SWAT-16.ico</iconset>
  </property>
  <layout class="QVBoxLayout" name="verticalLayout_2">
   <item>
    <widget class="QLabel" name="label">
     <property name="text">
      <string>Select type of point to add, then click on map to place it.  If you return to the map canvas to pan, zoom, etc click Resume adding to enable adding more points. Click OK to confirm and exit, Cancel to remove points and exit.</string>
     </property>
     <property name="wordWrap">
      <bool>true</bool>
     </property>
    </widget>
   </item>
   <item>
    <widget class="QWidget" name="widget" native="true">
     <layout class="QVBoxLayout" name="verticalLayout">
      <item>
       <widget class="QRadioButton" name="outletButton">
        <property name="text">
         <string>Outlet</string>
        </property>
        <property name="checked">
         <bool>true</bool>
        </property>
        <property name="autoExclusive">
         <bool>true</bool>
        </property>
       </widget>
      </item>
      <item>
       <widget class="QRadioButton" name="reservoirButton">
        <property name="text">
         <string>Reservoir</string>
        </property>
       </widget>
      </item>
      <item>
       <widget class="QRadioButton" name="inletButton">
        <property name="text">
         <string>Inlet</string>
        </property>
       </widget>
      </item>
      <item>
       <widget class="QRadioButton" name="ptsourceButton">
        <property name="text">
         <string>Point source</string>
        </property>
       </widget>
      </item>
     </layout>
    </widget>
   </item>
   <item>
    <widget class="QWidget" name="widget_2" native="true">
     <widget class="QPushButton" name="resumeButton">
      <property name="geometry">
       <rect>
        <x>0</x>
        <y>10</y>
        <width>97</width>
        <height>23</height>
       </rect>
      </property>
      <property name="text">
       <string>Resume adding</string>
      </property>
     </widget>
    </widget>
   </item>
   <item>
    <widget class="QDialogButtonBox" name="buttonBox">
     <property name="orientation">
      <enum>Qt::Horizontal</enum>
     </property>
     <property name="standardButtons">
      <set>QDialogButtonBox::Cancel|QDialogButtonBox::Ok</set>
     </property>
    </widget>
   </item>
  </layout>
 </widget>
 <resources>
  <include location="resources.qrc"/>
 </resources>
 <connections>
  <connection>
   <sender>buttonBox</sender>
   <signal>accepted()</signal>
   <receiver>OutletsDialog</receiver>
   <slot>accept()</slot>
   <hints>
    <hint type="sourcelabel">
     <x>248</x>
     <y>254</y>
    </hint>
    <hint type="destinationlabel">
     <x>157</x>
     <y>274</y>
    </hint>
   </hints>
  </connection>
  <connection>
   <sender>buttonBox</sender>
   <signal>rejected()</signal>
   <receiver>OutletsDialog</receiver>
   <slot>reject()</slot>
   <hints>
    <hint type="sourcelabel">
     <x>316</x>
     <y>260</y>
    </hint>
    <hint type="destinationlabel">
     <x>286</x>
     <y>274</y>
    </hint>
   </hints>
  </connection>
 </connections>
</ui>
